 Case_ID  AeroDyn15      ElastoDyn      ElastoDyn  ElastoDyn  ElastoDyn  ElastoDyn  ElastoDyn  ElastoDyn  ElastoDyn  ElastoDyn  ElastoDyn  ElastoDyn  ElastoDyn      ElastoDyn       ElastoDyn  ElastoDyn  ElastoDyn  ElastoDyn  ElastoDyn  ElastoDyn     Fst         Fst         Fst        Fst                                                  Fst                                                   Fst        Fst        Fst         Fst     Fst    Fst      Fst       Fst       Fst    HydroDyn  HydroDyn  HydroDyn  HydroDyn  HydroDyn   HydroDyn  HydroDyn      InflowWind      InflowWind   ServoDyn  ServoDyn  ServoDyn        ServoDyn             ServoDyn         ServoDyn   ServoDyn 
          AFAeroMod       BlPitch1       DrTrDOF    EdgeDOF    FlapDOF1   FlapDOF2    GenDOF   PtfmHvDOF   PtfmPDOF   PtfmRDOF  PtfmSgDOF  PtfmSwDOF   PtfmYDOF       RotSpeed        TeetDOF    TwFADOF1   TwFADOF2   TwSSDOF1   TwSSDOF2    YawDOF   CalcSteady  CompHydro  CompMooring  CompSub                                              LinTimes                                             Linearize  NLinTimes  OutFileFmt    OutFmt   TMax  TStart  TrimCase  TrimGain  TrimTol  DiffQTF   ExctnMod   RdtnDT   RdtnMod   WaveMod   WvDiffQTF  WvSumQTF      HWindSpeed       WindType   HSSBrMode   PCMode   VSContrl        VS_Rgn2K            VS_RtGnSp         VS_RtTq    VS_SlPc  
    0         1           0.05044          True       True       True       True       True      False      False      False      False      False      False    1173.7008920576181    False       True       True       True       True       True       True         0           0          0     150.    150.004 150.009 150.013 150.017 150.021 150.026 150.03  150.034 150.038 150.043 150.047     True        12         3       ES20.11E3  250    0.0       2       0.0001    1e-05      0         2      default      2         0        False     False           10.0             1           0         0         1      0.023969430910756737  1056.3308028518563  43093.51876    10.0   
    1         1          0.6826539         True       True       True       True       True      False      False      False      False      False      False    1173.7008920576181    False       True       True       True       True       True       True         0           0          0     150.    150.004 150.009 150.013 150.017 150.021 150.026 150.03  150.034 150.038 150.043 150.047     True        12         3       ES20.11E3  250    0.0       2       0.0001    1e-05      0         2      default      2         0        False     False    10.444444444444445      1           0         0         1      0.023969430910756737  1056.3308028518563  43093.51876    10.0   
    2         1           1.552096         True       True       True       True       True      False      False      False      False      False      False    1173.7008920576181    False       True       True       True       True       True       True         0           0          0     150.    150.004 150.009 150.013 150.017 150.021 150.026 150.03  150.034 150.038 150.043 150.047     True        12         3       ES20.11E3  250    0.0       2       0.0001    1e-05      0         2      default      2         0        False     False    10.88888888888889       1           0         0         1      0.023969430910756737  1056.3308028518563  43093.51876    10.0   
    3         1           2.236007         True       True       True       True       True      False      False      False      False      False      False    1173.7008920576181    False       True       True       True       True       True       True         0           0          0     150.    150.004 150.009 150.013 150.017 150.021 150.026 150.03  150.034 150.038 150.043 150.047     True        12         3       ES20.11E3  250    0.0       3       0.0001    1e-05      0         2      default      2         0        False     False    11.333333333333334      1           0         0         1      0.023969430910756737  1056.3308028518563  43093.51876    10.0   
    4         1           2.876345         True       True       True       True       True      False      False      False      False      False      False    1173.7008920576181    False       True       True       True       True       True       True         0           0          0     150.    150.004 150.009 150.013 150.017 150.021 150.026 150.03  150.034 150.038 150.043 150.047     True        12         3       ES20.11E3  250    0.0       3       0.0001    1e-05      0         2      default      2         0        False     False    11.777777777777779      1           0         0         1      0.023969430910756737  1056.3308028518563  43093.51876    10.0   
    5         1           3.505303         True       True       True       True       True      False      False      False      False      False      False    1173.7008920576181    False       True       True       True       True       True       True         0           0          0     150.    150.004 150.009 150.013 150.017 150.021 150.026 150.03  150.034 150.038 150.043 150.047     True        12         3       ES20.11E3  250    0.0       3       0.0001    1e-05      0         2      default      2         0        False     False    12.222222222222221      1           0         0         1      0.023969430910756737  1056.3308028518563  43093.51876    10.0   
    6         1           4.959471         True       True       True       True       True      False      False      False      False      False      False    1173.7008920576181    False       True       True       True       True       True       True         0           0          0     150.    150.004 150.009 150.013 150.017 150.021 150.026 150.03  150.034 150.038 150.043 150.047     True        12         3       ES20.11E3  250    0.0       3       0.0001    1e-05      0         2      default      2         0        False     False    12.666666666666666      1           0         0         1      0.023969430910756737  1056.3308028518563  43093.51876    10.0   
    7         1           5.967394         True       True       True       True       True      False      False      False      False      False      False    1173.7008920576181    False       True       True       True       True       True       True         0           0          0     150.    150.004 150.009 150.013 150.017 150.021 150.026 150.03  150.034 150.038 150.043 150.047     True        12         3       ES20.11E3  250    0.0       3       0.0001    1e-05      0         2      default      2         0        False     False    13.11111111111111       1           0         0         1      0.023969430910756737  1056.3308028518563  43093.51876    10.0   
    8         1      6.995705999999999     True       True       True       True       True      False      False      False      False      False      False    1173.7008920576181    False       True       True       True       True       True       True         0           0          0     150.    150.004 150.009 150.013 150.017 150.021 150.026 150.03  150.034 150.038 150.043 150.047     True        12         3       ES20.11E3  250    0.0       3       0.0001    1e-05      0         2      default      2         0        False     False    13.555555555555555      1           0         0         1      0.023969430910756737  1056.3308028518563  43093.51876    10.0   
    9         1           7.930013         True       True       True       True       True      False      False      False      False      False      False    1173.7008920576181    False       True       True       True       True       True       True         0           0          0     150.    150.004 150.009 150.013 150.017 150.021 150.026 150.03  150.034 150.038 150.043 150.047     True        12         3       ES20.11E3  250    0.0       3       0.0001    1e-05      0         2      default      2         0        False     False           14.0             1           0         0         1      0.023969430910756737  1056.3308028518563  43093.51876    10.0   
